$ header portion
INIT MASTER(S)
NASTRAN SYSTEM(319)=1
ID cylinder,FEMAP
SOL SESTATIC
CEND
  TITLE = MSC/MD Nastran Static Analysis Set
  ECHO = NONE
  DISPLACEMENT(PLOT) = ALL
  SPCFORCE(PLOT) = ALL
  OLOAD(PLOT) = ALL
  FORCE(PLOT,CORNER) = ALL
  STRESS(PLOT,CORNER) = ALL
SUBCASE 1
  SUBTITLE = Pressure
  ANALYSIS = STATICS
  SPC = 1
  LOAD = 1
BEGIN BULK
$ mesh
$---1---|---2---|---3---|---4---|---5---|---6---|---7---|---8---|---9---|---10--|
GRID           1         0.00000 0.00000 0.00000
GRID           2         0.00000 6.25E-2 0.00000
GRID           3         0.00000 0.12500 0.00000
GRID           4         0.00000 0.18750 0.00000
GRID           5         0.00000 0.25000 0.00000
GRID           6         0.12500 0.25000 0.00000
GRID           7         0.25000 0.25000 0.00000
GRID           8         0.37500 0.25000 0.00000
GRID           9         0.50000 0.25000 0.00000
GRID          10         0.50000 0.18750 0.00000
GRID          11         0.50000 0.12500 0.00000
GRID          12         0.50000 6.25E-2 0.00000
GRID          13         0.50000 0.00000 0.00000
GRID          14         0.37500 0.00000 0.00000
GRID          15         0.25000 0.00000 0.00000
GRID          16         0.12500 0.00000 0.00000
GRID          17         0.25000 0.12500 0.00000
GRID          18         0.12500 0.12500 0.00000
GRID          19         0.25000 6.25E-2 0.00000
GRID          20         0.25000 0.18750 0.00000
$ ... 5 like lines cut
$---1---|---2---|---3---|---4---|---5---|---6---|---7---|---8---|---9---|---10--|
CQUAD4         1       1       1       2      22      16
CQUAD4         2       1       3      18      22       2
CQUAD4         3       1      17      19      22      18
CQUAD4         4       1      15      16      22      19
CQUAD4         5       1       3       4      23      18
CQUAD4         6       1       5       6      23       4
CQUAD4         7       1       7      20      23       6
CQUAD4         8       1      17      18      23      20
CQUAD4         9       1      15      19      24      14
CQUAD4        10       1      17      21      24      19
CQUAD4        11       1      11      12      24      21
CQUAD4        12       1      13      14      24      12
CQUAD4        13       1      17      20      25      21
CQUAD4        14       1       7       8      25      20
CQUAD4        15       1       9      10      25       8
CQUAD4        16       1      11      21      25      10
$---1---|---2---|---3---|---4---|---5---|---6---|---7---|---8---|---9---|---10--|
PLOAD2         1     1.0       1    THRU      16
MAT1           1    1.+7            0.33     0.1
           20.+4    
PSHELL         1       1     0.1
$ add BCs
$ SPC card
ENDDATA