ID CAPS generated Problem FOR TACS
SOL 1
CEND

LINE=10000
DISP (PRINT,PUNCH) = ALL
STRE (PRINT,PUNCH) = ALL
STRA (PRINT,PUNCH) = ALL
SUBCASE 1
	LABEL = Default
	ANALYSIS = STATICS
	SPC = 2
	LOAD = 2

BEGIN BULK
$---1---|---2---|---3---|---4---|---5---|---6---|---7---|---8---|---9---|---10--|
PARAM, POST, -1

LOAD*                 2              1.              1.               1 
SPCADD*               2               1 
FORCE*                1              71               0            100. *0      
*0                   0.              1.              0. 
FORCE*                1              72               0            100. *0      
*0                   0.              1.              0. 
FORCE*                1              73               0            100. *0      
*0                   0.              1.              0. 
FORCE*                1              74               0            100. *0      
*0                   0.              1.              0. 
FORCE*                1              75               0            100. *0      
*0                   0.              1.              0. 
FORCE*                1              76               0            100. *0      
*0                   0.              1.              0. 
FORCE*                1              77               0            100. *0      
*0                   0.              1.              0. 
FORCE*                1              78               0            100. *0      
*0                   0.              1.              0. 
FORCE*                1              79               0            100. *0      
*0                   0.              1.              0. 
FORCE*                1              80               0            100. *0      
*0                   0.              1.              0. 
FORCE*                1              81               0            100. *0      
*0                   0.              1.              0. 
FORCE*                1              82               0            100. *0      
*0                   0.              1.              0. 
FORCE*                1              83               0            100. *0      
*0                   0.              1.              0. 
FORCE*                1              84               0            100. *0      
*0                   0.              1.              0. 
FORCE*                1              85               0            100. *0      
*0                   0.              1.              0. 
FORCE*                1              86               0            100. *0      
*0                   0.              1.              0. 
FORCE*                1              87               0            100. *0      
*0                   0.              1.              0. 
FORCE*                1              88               0            100. *0      
*0                   0.              1.              0. 
FORCE*                1              89               0            100. *0      
*0                   0.              1.              0. 
FORCE*                1              90               0            100. *0      
*0                   0.              1.              0. 
$ ... 464 like lines cut
SPC1*                 1          123456             152 
SPC1*                 1          123456             171 
SPC1*                 1          123456             172 
SPC1*                 1          123456             173 
SPC1*                 1          123456             174 
SPC1*                 1          123456             175 
SPC1*                 1          123456             176 
SPC1*                 1          123456             177 
SPC1*                 1          123456             178 
SPC1*                 1          123456             179 
SPC1*                 1          123456             180 
SPC1*                 1          123456             362 
SPC1*                 1          123456             372 
SPC1*                 1          123456             373 
SPC1*                 1          123456             374 
SPC1*                 1          123456             375 
SPC1*                 1          123456             376 
SPC1*                 1          123456             377 
SPC1*                 1          123456             378 
SPC1*                 1          123456             379 
$ ... 62 like lines cut
MAT1*                 1    72000000000.                            0.33 *0      
*0                2800.              0.              0.              0. *1      
*1           200000000.              0.              0. 
PSHELL*               2               1           2.E-2               1 *0      
*0                   1.               1 0.8333333333333 
PSHELL*               1               1           3.E-2               1 *0      
*0                   1.               1 0.8333333333333 
PSHELL*               3               1           5.E-2               1 *0      
*0                   1.               1 0.8333333333333 
DESVAR*               1            area              0.              0. *0      
*0                   0.              0. 
DESVAR*               2          aspect              0.              0. *0      
*0                   0.              0. 
DESVAR*               3        dihedral              0.              0. *0      
*0                   0.              0. 
DESVAR*               4         lesweep              0.              0. *0      
*0                   0.              0. 
DESVAR*               5           taper              0.              0. *0      
*0                   0.              0. 
DESVAR*               6          thick1           3.E-2          1.5E-2 *0      
*0               4.5E-2           3.E-3 
DESVAR*               7          thick2           5.E-2          2.5E-2 *0      
*0               7.5E-2           5.E-3 
DESVAR*               8          thick3           2.E-2           1.E-2 *0      
*0                3.E-2           2.E-3 
DESVAR*               9           twist              0.              0. *0      
*0                   0.              0. 
DVPREL1*            100          PSHELL               1               T *0      
*0                                                   0.                 *1      
*1                    6              1. 
DVPREL1*            200          PSHELL               3               T *0      
*0                                                   0.                 *1      
*1                    7              1. 
DVPREL1*            300          PSHELL               2               T *0      
*0                                                   0.                 *1      
*1                    8              1. 

INCLUDE 'nastran_CAPS.bdf'

ENDDATA
