ID CAPS generated Problem FOR TACS
SOL 1
CEND

LINE=10000
DISP (PRINT,PUNCH) = ALL
STRE (PRINT,PUNCH) = ALL
STRA (PRINT,PUNCH) = ALL
SUBCASE 1
	LABEL = Default
	ANALYSIS = STATICS
	SPC = 2
	LOAD = 2

BEGIN BULK
$---1---|---2---|---3---|---4---|---5---|---6---|---7---|---8---|---9---|---10--|
PARAM, POST, -1

LOAD*                 2              1.              1.               1 
SPCADD*               2               1 
FORCE*                1              99               0            100. *0      
*0                   0.              1.              0. 
FORCE*                1             100               0            100. *0      
*0                   0.              1.              0. 
FORCE*                1             101               0            100. *0      
*0                   0.              1.              0. 
FORCE*                1             102               0            100. *0      
*0                   0.              1.              0. 
FORCE*                1             103               0            100. *0      
*0                   0.              1.              0. 
FORCE*                1             104               0            100. *0      
*0                   0.              1.              0. 
FORCE*                1             105               0            100. *0      
*0                   0.              1.              0. 
FORCE*                1             106               0            100. *0      
*0                   0.              1.              0. 
FORCE*                1             107               0            100. *0      
*0                   0.              1.              0. 
FORCE*                1             108               0            100. *0      
*0                   0.              1.              0. 
FORCE*                1             109               0            100. *0      
*0                   0.              1.              0. 
FORCE*                1             110               0            100. *0      
*0                   0.              1.              0. 
FORCE*                1             111               0            100. *0      
*0                   0.              1.              0. 
FORCE*                1             112               0            100. *0      
*0                   0.              1.              0. 
FORCE*                1             113               0            100. *0      
*0                   0.              1.              0. 
FORCE*                1             114               0            100. *0      
*0                   0.              1.              0. 
FORCE*                1             115               0            100. *0      
*0                   0.              1.              0. 
FORCE*                1             116               0            100. *0      
*0                   0.              1.              0. 
FORCE*                1             117               0            100. *0      
*0                   0.              1.              0. 
FORCE*                1             118               0            100. *0      
*0                   0.              1.              0. 
$ ... 968 like lines cut
SPC1*                 1          123456            1085 
SPC1*                 1          123456            1104 
SPC1*                 1          123456            1105 
SPC1*                 1          123456            1106 
SPC1*                 1          123456            1107 
SPC1*                 1          123456            1108 
SPC1*                 1          123456            1109 
SPC1*                 1          123456            1590 
SPC1*                 1          123456            1591 
SPC1*                 1          123456            1592 
SPC1*                 1          123456            1593 
SPC1*                 1          123456            1594 
SPC1*                 1          123456            1640 
SPC1*                 1          123456            1650 
SPC1*                 1          123456            1651 
SPC1*                 1          123456            1652 
SPC1*                 1          123456            1653 
SPC1*                 1          123456            1654 
SPC1*                 1          123456            1655 
SPC1*                 1          123456            1656 
$ ... 62 like lines cut
MAT1*                 1    72000000000.                            0.33 *0      
*0                2800.              0.              0.              0. *1      
*1           200000000.              0.              0. 
PSHELL*               2               1           2.E-2               1 *0      
*0                   1.               1 0.8333333333333 
PSHELL*               3               1           3.E-2               1 *0      
*0                   1.               1 0.8333333333333 
PSHELL*               1               1           5.E-2               1 *0      
*0                   1.               1 0.8333333333333 
DESVAR*               1            area              0.              0. *0      
*0                   0.              0. 
DESVAR*               2          aspect              0.              0. *0      
*0                   0.              0. 
DESVAR*               3        dihedral              0.              0. *0      
*0                   0.              0. 
DESVAR*               4         lesweep              0.              0. *0      
*0                   0.              0. 
DESVAR*               5           taper              0.              0. *0      
*0                   0.              0. 
DESVAR*               6          thick1           3.E-2          1.5E-2 *0      
*0               4.5E-2           3.E-3 
DESVAR*               7          thick2           5.E-2          2.5E-2 *0      
*0               7.5E-2           5.E-3 
DESVAR*               8          thick3           2.E-2           1.E-2 *0      
*0                3.E-2           2.E-3 
DESVAR*               9           twist              0.              0. *0      
*0                   0.              0. 
DVPREL1*            100          PSHELL               3               T *0      
*0                                                   0.                 *1      
*1                    6              1. 
DVPREL1*            200          PSHELL               1               T *0      
*0                                                   0.                 *1      
*1                    7              1. 
DVPREL1*            300          PSHELL               2               T *0      
*0                                                   0.                 *1      
*1                    8              1. 

INCLUDE 'nastran_CAPS.bdf'

ENDDATA
