ID CAPS generated Problem FOR TACS
SOL 1
CEND

LINE=10000
DISP (PRINT,PUNCH) = ALL
STRE (PRINT,PUNCH) = ALL
STRA (PRINT,PUNCH) = ALL
SUBCASE 1
	LABEL = Default
	ANALYSIS = STATICS
	SPC = 2
	LOAD = 2

BEGIN BULK
$---1---|---2---|---3---|---4---|---5---|---6---|---7---|---8---|---9---|---10--|
PARAM, POST, -1

LOAD*                 2              1.              1.               1 
SPCADD*               2               1 
PLOAD2*               1         100000.               1 
PLOAD2*               1         100000.               2 
PLOAD2*               1         100000.               3 
PLOAD2*               1         100000.               4 
PLOAD2*               1         100000.               5 
PLOAD2*               1         100000.               6 
PLOAD2*               1         100000.               7 
PLOAD2*               1         100000.               8 
PLOAD2*               1         100000.               9 
PLOAD2*               1         100000.              10 
PLOAD2*               1         100000.              11 
PLOAD2*               1         100000.              12 
PLOAD2*               1         100000.              13 
PLOAD2*               1         100000.              14 
PLOAD2*               1         100000.              15 
PLOAD2*               1         100000.              16 
PLOAD2*               1         100000.              17 
PLOAD2*               1         100000.              18 
PLOAD2*               1         100000.              19 
PLOAD2*               1         100000.              20 
$ ... 236 like lines cut
SPC1*                 1          123456               1 
SPC1*                 1          123456               2 
SPC1*                 1          123456               3 
SPC1*                 1          123456               4 
SPC1*                 1          123456               5 
SPC1*                 1          123456               6 
SPC1*                 1          123456               7 
SPC1*                 1          123456               8 
SPC1*                 1          123456               9 
SPC1*                 1          123456              10 
SPC1*                 1          123456              11 
SPC1*                 1          123456              12 
SPC1*                 1          123456              13 
SPC1*                 1          123456              14 
SPC1*                 1          123456              15 
SPC1*                 1          123456              16 
SPC1*                 1          123456              17 
SPC1*                 1          123456              18 
SPC1*                 1          123456              19 
SPC1*                 1          123456              20 
$ ... 44 like lines cut
MAT1*                 1    72000000000.                            0.33 *0      
*0                2800.              0.              0.              0. *1      
*1           200000000.              0.              0. 
PSHELL*               1               1 1.0000938316E-2               1 *0      
*0                   1.               1 0.8333333333333 
DESVAR*               1     plateLength              0.              0. *0      
*0                   0.              0. 
DESVAR*               2      plateWidth              0.              0. *0      
*0                   0.              0. 
DESVAR*               3           thick 1.0000938316E-2  5.000469158E-3 *0      
*0      1.5001407474E-2 1.0000938316E-3 
DVPREL1*            100          PSHELL               1               T *0      
*0                                                   0.                 *1      
*1                    3              1. 

INCLUDE 'nastran_CAPS.bdf'

ENDDATA
