ID CAPS generated Problem FOR TACS
SOL 1
CEND

LINE=215170
DISP (PRINT,PUNCH) = ALL
STRE (PRINT,PUNCH) = ALL
STRA (PRINT,PUNCH) = ALL
SUBCASE 1
	LABEL = Default
	ANALYSIS = STATICS
	SPC = 2
	LOAD = 2

BEGIN BULK
$---1---|---2---|---3---|---4---|---5---|---6---|---7---|---8---|---9---|---10--|
PARAM, POST, -1

LOAD*                 2              1.              1.               1 
SPCADD*               2               1 
FORCE*                1             205               0            100. *0      
*0                   0.              1.              0. 
FORCE*                1             206               0            100. *0      
*0                   0.              1.              0. 
FORCE*                1             207               0            100. *0      
*0                   0.              1.              0. 
FORCE*                1             208               0            100. *0      
*0                   0.              1.              0. 
FORCE*                1             209               0            100. *0      
*0                   0.              1.              0. 
FORCE*                1             210               0            100. *0      
*0                   0.              1.              0. 
FORCE*                1             211               0            100. *0      
*0                   0.              1.              0. 
FORCE*                1             212               0            100. *0      
*0                   0.              1.              0. 
FORCE*                1             213               0            100. *0      
*0                   0.              1.              0. 
FORCE*                1             214               0            100. *0      
*0                   0.              1.              0. 
FORCE*                1             215               0            100. *0      
*0                   0.              1.              0. 
FORCE*                1             216               0            100. *0      
*0                   0.              1.              0. 
FORCE*                1             217               0            100. *0      
*0                   0.              1.              0. 
FORCE*                1             218               0            100. *0      
*0                   0.              1.              0. 
FORCE*                1             219               0            100. *0      
*0                   0.              1.              0. 
FORCE*                1             220               0            100. *0      
*0                   0.              1.              0. 
FORCE*                1             221               0            100. *0      
*0                   0.              1.              0. 
FORCE*                1             222               0            100. *0      
*0                   0.              1.              0. 
FORCE*                1             223               0            100. *0      
*0                   0.              1.              0. 
FORCE*                1             224               0            100. *0      
*0                   0.              1.              0. 
$ ... 8672 like lines cut
SPC1*                 1          123456           15015 
SPC1*                 1          123456           15016 
SPC1*                 1          123456           15017 
SPC1*                 1          123456           15018 
SPC1*                 1          123456           15019 
SPC1*                 1          123456           15020 
SPC1*                 1          123456           15021 
SPC1*                 1          123456           15022 
SPC1*                 1          123456           15023 
SPC1*                 1          123456           15024 
SPC1*                 1          123456           15025 
SPC1*                 1          123456           15855 
SPC1*                 1          123456           15856 
SPC1*                 1          123456           15857 
SPC1*                 1          123456           15858 
SPC1*                 1          123456           15859 
SPC1*                 1          123456           15860 
SPC1*                 1          123456           15861 
SPC1*                 1          123456           15862 
SPC1*                 1          123456           15863 
$ ... 596 like lines cut
MAT1*                 1    72000000000.                            0.33 *0      
*0                2800.              0.              0.              0. *1      
*1           200000000.              0.              0. 
PSHELL*               1               1           2.E-2               1 *0      
*0                   1.               1 0.8333333333333 
DESVAR*               1            area              0.              0. *0      
*0                   0.              0. 
DESVAR*               2          aspect              0.              0. *0      
*0                   0.              0. 
DESVAR*               3        dihedral              0.              0. *0      
*0                   0.              0. 
DESVAR*               4         lesweep              0.              0. *0      
*0                   0.              0. 
DESVAR*               5           taper              0.              0. *0      
*0                   0.              0. 
DESVAR*               6          toverc              0.              0. *0      
*0                   0.              0. 
DESVAR*               7           twist              0.              0. *0      
*0                   0.              0. 

INCLUDE 'nastran_CAPS.bdf'

ENDDATA
