ID CAPS generated Problem FOR TACS
SOL 1
CEND

LINE=10000
DISP (PRINT,PUNCH) = ALL
STRE (PRINT,PUNCH) = ALL
STRA (PRINT,PUNCH) = ALL
SUBCASE 1
	LABEL = Default
	ANALYSIS = STATICS
	SPC = 2
	LOAD = 2

BEGIN BULK
$---1---|---2---|---3---|---4---|---5---|---6---|---7---|---8---|---9---|---10--|
PARAM, POST, -1

LOAD*                 2              1.              1.               1 
SPCADD*               2               1 
FORCE*                1              83               0            100. *0      
*0                   0.              1.              0. 
FORCE*                1              84               0            100. *0      
*0                   0.              1.              0. 
FORCE*                1              85               0            100. *0      
*0                   0.              1.              0. 
FORCE*                1              86               0            100. *0      
*0                   0.              1.              0. 
FORCE*                1              87               0            100. *0      
*0                   0.              1.              0. 
FORCE*                1              88               0            100. *0      
*0                   0.              1.              0. 
FORCE*                1              89               0            100. *0      
*0                   0.              1.              0. 
FORCE*                1              90               0            100. *0      
*0                   0.              1.              0. 
FORCE*                1              91               0            100. *0      
*0                   0.              1.              0. 
FORCE*                1              92               0            100. *0      
*0                   0.              1.              0. 
FORCE*                1              93               0            100. *0      
*0                   0.              1.              0. 
FORCE*                1              94               0            100. *0      
*0                   0.              1.              0. 
FORCE*                1              95               0            100. *0      
*0                   0.              1.              0. 
FORCE*                1              96               0            100. *0      
*0                   0.              1.              0. 
FORCE*                1              97               0            100. *0      
*0                   0.              1.              0. 
FORCE*                1              98               0            100. *0      
*0                   0.              1.              0. 
FORCE*                1              99               0            100. *0      
*0                   0.              1.              0. 
FORCE*                1             100               0            100. *0      
*0                   0.              1.              0. 
FORCE*                1             101               0            100. *0      
*0                   0.              1.              0. 
FORCE*                1             102               0            100. *0      
*0                   0.              1.              0. 
$ ... 2340 like lines cut
SPC1*                 1          123456            4537 
SPC1*                 1          123456            4538 
SPC1*                 1          123456            4539 
SPC1*                 1          123456            4540 
SPC1*                 1          123456            4541 
SPC1*                 1          123456            4801 
SPC1*                 1          123456            4802 
SPC1*                 1          123456            4803 
SPC1*                 1          123456            4804 
SPC1*                 1          123456            4805 
SPC1*                 1          123456            4921 
SPC1*                 1          123456            4922 
SPC1*                 1          123456            4923 
SPC1*                 1          123456            4924 
SPC1*                 1          123456            4925 
SPC1*                 1          123456            4926 
SPC1*                 1          123456            4927 
SPC1*                 1          123456            4929 
SPC1*                 1          123456            4930 
SPC1*                 1          123456            4931 
$ ... 190 like lines cut
MAT1*                 1    72000000000.                            0.33 *0      
*0                2800.              0.              0.              0. *1      
*1           200000000.              0.              0. 
PSHELL*               1               1           2.E-2               1 *0      
*0                   1.               1 0.8333333333333 
DESVAR*               1            area              0.              0. *0      
*0                   0.              0. 
DESVAR*               2          aspect              0.              0. *0      
*0                   0.              0. 
DESVAR*               3        dihedral              0.              0. *0      
*0                   0.              0. 
DESVAR*               4         lesweep              0.              0. *0      
*0                   0.              0. 
DESVAR*               5           taper              0.              0. *0      
*0                   0.              0. 
DESVAR*               6      thickRatio              0.              0. *0      
*0                   0.              0. 
DESVAR*               7           twist              0.              0. *0      
*0                   0.              0. 

INCLUDE 'nastran_CAPS.bdf'

ENDDATA
