ID CAPS generated Problem FOR TACS
SOL 1
CEND

LINE=140320
DISP (PRINT,PUNCH) = ALL
STRE (PRINT,PUNCH) = ALL
STRA (PRINT,PUNCH) = ALL
SUBCASE 1
	LABEL = Default
	ANALYSIS = STATICS
	SPC = 2
	LOAD = 2

BEGIN BULK
$---1---|---2---|---3---|---4---|---5---|---6---|---7---|---8---|---9---|---10--|
PARAM, POST, -1

LOAD*                 2              1.              1.               1 
SPCADD*               2               1 
FORCE*                1               2               0         100000. *0      
*0                   0.              1.              0. 
FORCE*                1               3               0         100000. *0      
*0                   0.              1.              0. 
FORCE*                1               4               0         100000. *0      
*0                   0.              1.              0. 
FORCE*                1               5               0         100000. *0      
*0                   0.              1.              0. 
FORCE*                1               6               0         100000. *0      
*0                   0.              1.              0. 
FORCE*                1               7               0         100000. *0      
*0                   0.              1.              0. 
FORCE*                1               8               0         100000. *0      
*0                   0.              1.              0. 
FORCE*                1               9               0         100000. *0      
*0                   0.              1.              0. 
FORCE*                1              10               0         100000. *0      
*0                   0.              1.              0. 
FORCE*                1              11               0         100000. *0      
*0                   0.              1.              0. 
FORCE*                1              12               0         100000. *0      
*0                   0.              1.              0. 
FORCE*                1              13               0         100000. *0      
*0                   0.              1.              0. 
FORCE*                1              14               0         100000. *0      
*0                   0.              1.              0. 
FORCE*                1              15               0         100000. *0      
*0                   0.              1.              0. 
FORCE*                1              16               0         100000. *0      
*0                   0.              1.              0. 
FORCE*                1            1083               0         100000. *0      
*0                   0.              1.              0. 
FORCE*                1            1084               0         100000. *0      
*0                   0.              1.              0. 
FORCE*                1            1085               0         100000. *0      
*0                   0.              1.              0. 
FORCE*                1            1086               0         100000. *0      
*0                   0.              1.              0. 
FORCE*                1            1087               0         100000. *0      
*0                   0.              1.              0. 
$ ... 602 like lines cut
SPC1*                 1          123456           11535 
SPC1*                 1          123456           11536 
SPC1*                 1          123456           11537 
SPC1*                 1          123456           11538 
SPC1*                 1          123456           11539 
SPC1*                 1          123456           11540 
SPC1*                 1          123456           11541 
SPC1*                 1          123456           11542 
SPC1*                 1          123456           11543 
SPC1*                 1          123456           11544 
SPC1*                 1          123456           11545 
SPC1*                 1          123456           11546 
SPC1*                 1          123456           11547 
SPC1*                 1          123456           11548 
SPC1*                 1          123456           11549 
SPC1*                 1          123456           11550 
SPC1*                 1          123456           11551 
SPC1*                 1          123456           11552 
SPC1*                 1          123456           11553 
SPC1*                 1          123456           11554 
$ ... 756 like lines cut
MAT1*                 1    72000000000.                            0.33 *0      
*0                2800.              0.              0.              0. *1      
*1           200000000.              0.              0. 
PSHELL*               1               1           2.E-2               1 *0      
*0                   1.               1 0.8333333333333 

INCLUDE 'nastran_CAPS.bdf'

ENDDATA
