ID CAPS generated Problem FOR TACS
SOL 1
CEND

LINE=10000
DISP (PRINT,PUNCH) = ALL
STRE (PRINT,PUNCH) = ALL
STRA (PRINT,PUNCH) = ALL
SUBCASE 1
	LABEL = Default
	ANALYSIS = STATICS
	SPC = 2
	LOAD = 2

BEGIN BULK
$---1---|---2---|---3---|---4---|---5---|---6---|---7---|---8---|---9---|---10--|
PARAM, POST, -1

LOAD           2      1.      1.       1
SPCADD         2       1
PLOAD2         12000000.     257
PLOAD2         12000000.     258
PLOAD2         12000000.     259
PLOAD2         12000000.     260
PLOAD2         12000000.     261
PLOAD2         12000000.     262
PLOAD2         12000000.     263
PLOAD2         12000000.     264
PLOAD2         12000000.     265
PLOAD2         12000000.     266
PLOAD2         12000000.     267
PLOAD2         12000000.     268
PLOAD2         12000000.     269
PLOAD2         12000000.     270
PLOAD2         12000000.     271
PLOAD2         12000000.     272
PLOAD2         12000000.     273
PLOAD2         12000000.     274
PLOAD2         12000000.     275
PLOAD2         12000000.     276
$ ... 492 like lines cut
SPC1           1  123456     290
SPC1           1  123456     291
SPC1           1  123456     292
SPC1           1  123456     293
SPC1           1  123456     294
SPC1           1  123456     295
SPC1           1  123456     296
SPC1           1  123456     297
SPC1           1  123456     298
SPC1           1  123456     299
SPC1           1  123456     300
SPC1           1  123456     301
SPC1           1  123456     302
SPC1           1  123456     303
SPC1           1  123456     304
SPC1           1  123456     305
SPC1           1  123456     306
SPC1           1  123456     307
SPC1           1  123456     308
SPC1           1  123456     309
$ ... 74 like lines cut
MAT1           1 7.2E+10            0.33   2800.      0.      0.      0.+0      
+0         2.E+8      0.      0.
PSHELL         2       1   6.E-3       1      1.       10.833333
PSHELL         1       1   6.E-3       1      1.       10.833333
DESVAR         1plateLen      0.      0.      0.      0.
DESVAR         2plateWid      0.      0.      0.      0.
DESVAR         3stiffHei      0.      0.      0.      0.

INCLUDE 'nastran_CAPS.bdf'

ENDDATA
