ID CAPS generated Problem FOR Nastran
SOL 1
CEND

LINE=10000
DISP (PRINT,PUNCH) = ALL
STRE (PRINT,PUNCH) = ALL
STRA (PRINT,PUNCH) = ALL
SUBCASE 1
	LABEL = SingleLoadCase
	ANALYSIS = STATICS
	SPC = 2
	LOAD = 2

BEGIN BULK
$---1---|---2---|---3---|---4---|---5---|---6---|---7---|---8---|---9---|---10--|
PARAM, POST, -1

LOAD    ,      2,     1.,     1.,      1
SPCADD  ,      2,      1
FORCE   ,      1,    109,      0, 20000.,     0.,     0.,     1.
FORCE   ,      1,    110,      0, 20000.,     0.,     0.,     1.
FORCE   ,      1,    111,      0, 20000.,     0.,     0.,     1.
FORCE   ,      1,    112,      0, 20000.,     0.,     0.,     1.
FORCE   ,      1,    121,      0, 20000.,     0.,     0.,     1.
FORCE   ,      1,    122,      0, 20000.,     0.,     0.,     1.
FORCE   ,      1,    123,      0, 20000.,     0.,     0.,     1.
FORCE   ,      1,    124,      0, 20000.,     0.,     0.,     1.
FORCE   ,      1,    133,      0, 20000.,     0.,     0.,     1.
FORCE   ,      1,    134,      0, 20000.,     0.,     0.,     1.
FORCE   ,      1,    135,      0, 20000.,     0.,     0.,     1.
FORCE   ,      1,    136,      0, 20000.,     0.,     0.,     1.
FORCE   ,      1,    145,      0, 20000.,     0.,     0.,     1.
FORCE   ,      1,    146,      0, 20000.,     0.,     0.,     1.
FORCE   ,      1,    147,      0, 20000.,     0.,     0.,     1.
FORCE   ,      1,    148,      0, 20000.,     0.,     0.,     1.
FORCE   ,      1,    157,      0, 20000.,     0.,     0.,     1.
FORCE   ,      1,    158,      0, 20000.,     0.,     0.,     1.
FORCE   ,      1,    159,      0, 20000.,     0.,     0.,     1.
FORCE   ,      1,    160,      0, 20000.,     0.,     0.,     1.
$ ... 300 like lines cut
SPC1    ,      1, 123456,    101
SPC1    ,      1, 123456,    102
SPC1    ,      1, 123456,    113
SPC1    ,      1, 123456,    114
SPC1    ,      1, 123456,    203
SPC1    ,      1, 123456,    204
SPC1    ,      1, 123456,    245
SPC1    ,      1, 123456,    246
SPC1    ,      1, 123456,    351
SPC1    ,      1, 123456,    352
SPC1    ,      1, 123456,    363
SPC1    ,      1, 123456,    364
SPC1    ,      1, 123456,    428
SPC1    ,      1, 123456,    429
SPC1    ,      1, 123456,    470
SPC1    ,      1, 123456,    471
SPC1    ,      1, 123456,    576
SPC1    ,      1, 123456,    577
SPC1    ,      1, 123456,    588
SPC1    ,      1, 123456,    589
$ ... 20 like lines cut
MAT1    ,      1,  1.E+7,       ,   0.33,    0.1,     0.,     0.,     0.,+0      
+0      ,     0.,     0.,     0.
PSHELL  ,    112,      1,9.09E-2,      1,     1.,      1,0.83333
PSHELL  ,     17,      1,0.90909,      1,     1.,      1,0.83333
PSHELL  ,    111,      1,     1.,      1,     1.,      1,0.83333
PSHELL  ,    103,      1,1.09091,      1,     1.,      1,0.83333
PSHELL  ,     95,      1,1.18182,      1,     1.,      1,0.83333
PSHELL  ,     88,      1,1.27273,      1,     1.,      1,0.83333
PSHELL  ,     71,      1,1.36364,      1,     1.,      1,0.83333
PSHELL  ,     64,      1,1.45455,      1,     1.,      1,0.83333
PSHELL  ,     47,      1,1.54545,      1,     1.,      1,0.83333
PSHELL  ,     40,      1,1.63636,      1,     1.,      1,0.83333
PSHELL  ,     23,      1,1.72727,      1,     1.,      1,0.83333
PSHELL  ,    104,      1,0.18182,      1,     1.,      1,0.83333
PSHELL  ,     16,      1,1.81818,      1,     1.,      1,0.83333
PSHELL  ,    110,      1,1.90909,      1,     1.,      1,0.83333
PSHELL  ,    102,      1,     2.,      1,     1.,      1,0.83333
PSHELL  ,     94,      1,2.09091,      1,     1.,      1,0.83333
PSHELL  ,     87,      1,2.18182,      1,     1.,      1,0.83333
PSHELL  ,     70,      1,2.27273,      1,     1.,      1,0.83333
PSHELL  ,     63,      1,2.36364,      1,     1.,      1,0.83333
PSHELL  ,     46,      1,2.45455,      1,     1.,      1,0.83333
$ ... 64 like lines cut
DESVAR  ,      1, plate1,9.09E-2,4.55E-2,0.13636,9.09E-3
DESVAR  ,      2,plate10,0.90909,0.45455,1.36364,9.09E-2
DESVAR  ,      3,plate11,     1.,    0.5,    1.5,    0.1
DESVAR  ,      4,plate12,1.09091,0.54545,1.63636,0.10909
DESVAR  ,      5,plate13,1.18182,0.59091,1.77273,0.11818
DESVAR  ,      6,plate14,1.27273,0.63636,1.90909,0.12727
DESVAR  ,      7,plate15,1.36364,0.68182,2.04545,0.13636
DESVAR  ,      8,plate16,1.45455,0.72727,2.18182,0.14545
DESVAR  ,      9,plate17,1.54545,0.77273,2.31818,0.15455
DESVAR  ,     10,plate18,1.63636,0.81818,2.45455,0.16364
DESVAR  ,     11,plate19,1.72727,0.86364,2.59091,0.17273
DESVAR  ,     12, plate2,0.18182,9.09E-2,0.27273,1.82E-2
DESVAR  ,     13,plate20,1.81818,0.90909,2.72727,0.18182
DESVAR  ,     14,plate21,1.90909,0.95455,2.86364,0.19091
DESVAR  ,     15,plate22,     2.,     1.,     3.,    0.2
DESVAR  ,     16,plate23,2.09091,1.04545,3.13636,0.20909
DESVAR  ,     17,plate24,2.18182,1.09091,3.27273,0.21818
DESVAR  ,     18,plate25,2.27273,1.13636,3.40909,0.22727
DESVAR  ,     19,plate26,2.36364,1.18182,3.54545,0.23636
DESVAR  ,     20,plate27,2.45455,1.22727,3.68182,0.24545
$ ... 60 like lines cut
DESVAR  ,     81, stiff1,9.09E-2,4.55E-2,0.13636,9.09E-3
DESVAR  ,     82, stiff2,0.18182,9.09E-2,0.27273,1.82E-2
DESVAR  ,     83, stiff3,0.27273,0.13636,0.40909,2.73E-2
DESVAR  ,     84, stiff4,0.36364,0.18182,0.54545,3.64E-2
DVPREL1 ,    100, PSHELL,    112,      T,       ,       ,     0.,       ,+0      
+0      ,      1,     1.
DVPREL1 ,    200, PSHELL,     17,      T,       ,       ,     0.,       ,+0      
+0      ,      2,     1.
DVPREL1 ,    300, PSHELL,    111,      T,       ,       ,     0.,       ,+0      
+0      ,      3,     1.
DVPREL1 ,    400, PSHELL,    103,      T,       ,       ,     0.,       ,+0      
+0      ,      4,     1.
DVPREL1 ,    500, PSHELL,     95,      T,       ,       ,     0.,       ,+0      
+0      ,      5,     1.
DVPREL1 ,    600, PSHELL,     88,      T,       ,       ,     0.,       ,+0      
+0      ,      6,     1.
DVPREL1 ,    700, PSHELL,     71,      T,       ,       ,     0.,       ,+0      
+0      ,      7,     1.
DVPREL1 ,    800, PSHELL,     64,      T,       ,       ,     0.,       ,+0      
+0      ,      8,     1.
DVPREL1 ,    900, PSHELL,     47,      T,       ,       ,     0.,       ,+0      
+0      ,      9,     1.
DVPREL1 ,   1000, PSHELL,     40,      T,       ,       ,     0.,       ,+0      
+0      ,     10,     1.
DVPREL1 ,   1100, PSHELL,     23,      T,       ,       ,     0.,       ,+0      
+0      ,     11,     1.
DVPREL1 ,   1200, PSHELL,    104,      T,       ,       ,     0.,       ,+0      
+0      ,     12,     1.
DVPREL1 ,   1300, PSHELL,     16,      T,       ,       ,     0.,       ,+0      
+0      ,     13,     1.
DVPREL1 ,   1400, PSHELL,    110,      T,       ,       ,     0.,       ,+0      
+0      ,     14,     1.
DVPREL1 ,   1500, PSHELL,    102,      T,       ,       ,     0.,       ,+0      
+0      ,     15,     1.
DVPREL1 ,   1600, PSHELL,     94,      T,       ,       ,     0.,       ,+0      
+0      ,     16,     1.
DVPREL1 ,   1700, PSHELL,     87,      T,       ,       ,     0.,       ,+0      
+0      ,     17,     1.
DVPREL1 ,   1800, PSHELL,     70,      T,       ,       ,     0.,       ,+0      
+0      ,     18,     1.
DVPREL1 ,   1900, PSHELL,     63,      T,       ,       ,     0.,       ,+0      
+0      ,     19,     1.
DVPREL1 ,   2000, PSHELL,     46,      T,       ,       ,     0.,       ,+0      
+0      ,     20,     1.
$ ... 128 like lines cut

INCLUDE 'stiffPanel.bdf'

ENDDATA
