ID CAPS generated Problem FOR TACS
SOL 1
CEND

LINE=565650
DISP (PRINT,PUNCH) = ALL
STRE (PRINT,PUNCH) = ALL
STRA (PRINT,PUNCH) = ALL
SUBCASE 1
	LABEL = Default
	ANALYSIS = STATICS
	SPC = 2
	LOAD = 2

BEGIN BULK
$---1---|---2---|---3---|---4---|---5---|---6---|---7---|---8---|---9---|---10--|
PARAM, POST, -1

LOAD*                 2              1.              1.               1 
SPCADD*               2               1 
FORCE*                1             501               0            100. *0      
*0                   0.              1.              0. 
FORCE*                1             502               0            100. *0      
*0                   0.              1.              0. 
FORCE*                1             503               0            100. *0      
*0                   0.              1.              0. 
FORCE*                1             504               0            100. *0      
*0                   0.              1.              0. 
FORCE*                1             505               0            100. *0      
*0                   0.              1.              0. 
FORCE*                1             506               0            100. *0      
*0                   0.              1.              0. 
FORCE*                1             507               0            100. *0      
*0                   0.              1.              0. 
FORCE*                1             508               0            100. *0      
*0                   0.              1.              0. 
FORCE*                1             509               0            100. *0      
*0                   0.              1.              0. 
FORCE*                1             510               0            100. *0      
*0                   0.              1.              0. 
FORCE*                1             511               0            100. *0      
*0                   0.              1.              0. 
FORCE*                1             512               0            100. *0      
*0                   0.              1.              0. 
FORCE*                1             513               0            100. *0      
*0                   0.              1.              0. 
FORCE*                1             514               0            100. *0      
*0                   0.              1.              0. 
FORCE*                1             515               0            100. *0      
*0                   0.              1.              0. 
FORCE*                1             516               0            100. *0      
*0                   0.              1.              0. 
FORCE*                1             517               0            100. *0      
*0                   0.              1.              0. 
FORCE*                1             518               0            100. *0      
*0                   0.              1.              0. 
FORCE*                1             519               0            100. *0      
*0                   0.              1.              0. 
FORCE*                1             520               0            100. *0      
*0                   0.              1.              0. 
$ ... 26636 like lines cut
SPC1*                 1          123456           42432 
SPC1*                 1          123456           42471 
SPC1*                 1          123456           42472 
SPC1*                 1          123456           42473 
SPC1*                 1          123456           42474 
SPC1*                 1          123456           42475 
SPC1*                 1          123456           42476 
SPC1*                 1          123456           42477 
SPC1*                 1          123456           42478 
SPC1*                 1          123456           42479 
SPC1*                 1          123456           42480 
SPC1*                 1          123456           42481 
SPC1*                 1          123456           42482 
SPC1*                 1          123456           42483 
SPC1*                 1          123456           42484 
SPC1*                 1          123456           42485 
SPC1*                 1          123456           42486 
SPC1*                 1          123456           42487 
SPC1*                 1          123456           42488 
SPC1*                 1          123456           42489 
$ ... 1471 like lines cut
MAT1*                 1    72000000000.                            0.33 *0      
*0                2800.              0.              0.              0. *1      
*1           200000000.              0.              0. 
PSHELL*               1               1           2.E-2               1 *0      
*0                   1.               1 0.8333333333333 
DESVAR*               1            area              0.              0. *0      
*0                   0.              0. 
DESVAR*               2          aspect              0.              0. *0      
*0                   0.              0. 
DESVAR*               3        dihedral              0.              0. *0      
*0                   0.              0. 
DESVAR*               4         lesweep              0.              0. *0      
*0                   0.              0. 
DESVAR*               5           taper              0.              0. *0      
*0                   0.              0. 
DESVAR*               6           twist              0.              0. *0      
*0                   0.              0. 

INCLUDE 'nastran_CAPS.bdf'

ENDDATA
