ID CAPS generated Problem FOR TACS
SOL 1
CEND

LINE=214980
DISP (PRINT,PUNCH) = ALL
STRE (PRINT,PUNCH) = ALL
STRA (PRINT,PUNCH) = ALL
SUBCASE 1
	LABEL = Default
	ANALYSIS = STATICS
	SPC = 2
	LOAD = 2

BEGIN BULK
$---1---|---2---|---3---|---4---|---5---|---6---|---7---|---8---|---9---|---10--|
PARAM, POST, -1

LOAD*                 2              1.              1.               1 
SPCADD*               2               1 
FORCE*                1             223               0            100. *0      
*0                   0.              1.              0. 
FORCE*                1             224               0            100. *0      
*0                   0.              1.              0. 
FORCE*                1             225               0            100. *0      
*0                   0.              1.              0. 
FORCE*                1             226               0            100. *0      
*0                   0.              1.              0. 
FORCE*                1             227               0            100. *0      
*0                   0.              1.              0. 
FORCE*                1             228               0            100. *0      
*0                   0.              1.              0. 
FORCE*                1             229               0            100. *0      
*0                   0.              1.              0. 
FORCE*                1             230               0            100. *0      
*0                   0.              1.              0. 
FORCE*                1             231               0            100. *0      
*0                   0.              1.              0. 
FORCE*                1             232               0            100. *0      
*0                   0.              1.              0. 
FORCE*                1             233               0            100. *0      
*0                   0.              1.              0. 
FORCE*                1             234               0            100. *0      
*0                   0.              1.              0. 
FORCE*                1             235               0            100. *0      
*0                   0.              1.              0. 
FORCE*                1             236               0            100. *0      
*0                   0.              1.              0. 
FORCE*                1             237               0            100. *0      
*0                   0.              1.              0. 
FORCE*                1             238               0            100. *0      
*0                   0.              1.              0. 
FORCE*                1             239               0            100. *0      
*0                   0.              1.              0. 
FORCE*                1             240               0            100. *0      
*0                   0.              1.              0. 
FORCE*                1             241               0            100. *0      
*0                   0.              1.              0. 
FORCE*                1             242               0            100. *0      
*0                   0.              1.              0. 
$ ... 11300 like lines cut
SPC1*                 1          123456           16238 
SPC1*                 1          123456           16269 
SPC1*                 1          123456           16270 
SPC1*                 1          123456           16271 
SPC1*                 1          123456           16272 
SPC1*                 1          123456           16273 
SPC1*                 1          123456           16274 
SPC1*                 1          123456           16275 
SPC1*                 1          123456           16276 
SPC1*                 1          123456           16277 
SPC1*                 1          123456           16278 
SPC1*                 1          123456           17709 
SPC1*                 1          123456           17710 
SPC1*                 1          123456           17711 
SPC1*                 1          123456           17712 
SPC1*                 1          123456           17713 
SPC1*                 1          123456           17714 
SPC1*                 1          123456           17715 
SPC1*                 1          123456           17716 
SPC1*                 1          123456           17717 
$ ... 382 like lines cut
MAT1*                 1    72000000000.                            0.33 *0      
*0                2800.              0.              0.              0. *1      
*1           200000000.              0.              0. 
PSHELL*               1               1           2.E-2               1 *0      
*0                   1.               1 0.8333333333333 
DESVAR*               1            area              0.              0. *0      
*0                   0.              0. 
DESVAR*               2          aspect              0.              0. *0      
*0                   0.              0. 
DESVAR*               3        dihedral              0.              0. *0      
*0                   0.              0. 
DESVAR*               4         lesweep              0.              0. *0      
*0                   0.              0. 
DESVAR*               5           taper              0.              0. *0      
*0                   0.              0. 
DESVAR*               6           twist              0.              0. *0      
*0                   0.              0. 

INCLUDE 'nastran_CAPS.bdf'

ENDDATA
