ID CAPS generated Problem FOR TACS
SOL 1
CEND

LINE=370910
DISP (PRINT,PUNCH) = ALL
STRE (PRINT,PUNCH) = ALL
STRA (PRINT,PUNCH) = ALL
SUBCASE 1
	LABEL = Default
	ANALYSIS = STATICS
	SPC = 2
	LOAD = 2

BEGIN BULK
$---1---|---2---|---3---|---4---|---5---|---6---|---7---|---8---|---9---|---10--|
PARAM, POST, -1

LOAD*                 2              1.              1.               1 
SPCADD*               2               1 
FORCE*                1             337               0            100. *0      
*0                   0.              1.              0. 
FORCE*                1             338               0            100. *0      
*0                   0.              1.              0. 
FORCE*                1             339               0            100. *0      
*0                   0.              1.              0. 
FORCE*                1             340               0            100. *0      
*0                   0.              1.              0. 
FORCE*                1             341               0            100. *0      
*0                   0.              1.              0. 
FORCE*                1             342               0            100. *0      
*0                   0.              1.              0. 
FORCE*                1             343               0            100. *0      
*0                   0.              1.              0. 
FORCE*                1             344               0            100. *0      
*0                   0.              1.              0. 
FORCE*                1             345               0            100. *0      
*0                   0.              1.              0. 
FORCE*                1             346               0            100. *0      
*0                   0.              1.              0. 
FORCE*                1             347               0            100. *0      
*0                   0.              1.              0. 
FORCE*                1             348               0            100. *0      
*0                   0.              1.              0. 
FORCE*                1             349               0            100. *0      
*0                   0.              1.              0. 
FORCE*                1             350               0            100. *0      
*0                   0.              1.              0. 
FORCE*                1             351               0            100. *0      
*0                   0.              1.              0. 
FORCE*                1             352               0            100. *0      
*0                   0.              1.              0. 
FORCE*                1             353               0            100. *0      
*0                   0.              1.              0. 
FORCE*                1             354               0            100. *0      
*0                   0.              1.              0. 
FORCE*                1             355               0            100. *0      
*0                   0.              1.              0. 
FORCE*                1             356               0            100. *0      
*0                   0.              1.              0. 
$ ... 17240 like lines cut
SPC1*                 1          123456           27957 
SPC1*                 1          123456           27988 
SPC1*                 1          123456           27989 
SPC1*                 1          123456           27990 
SPC1*                 1          123456           27991 
SPC1*                 1          123456           27992 
SPC1*                 1          123456           27993 
SPC1*                 1          123456           27994 
SPC1*                 1          123456           27995 
SPC1*                 1          123456           27996 
SPC1*                 1          123456           27997 
SPC1*                 1          123456           27998 
SPC1*                 1          123456           27999 
SPC1*                 1          123456           28000 
SPC1*                 1          123456           28001 
SPC1*                 1          123456           28002 
SPC1*                 1          123456           28003 
SPC1*                 1          123456           30436 
SPC1*                 1          123456           30437 
SPC1*                 1          123456           30438 
$ ... 1022 like lines cut
MAT1*                 1    72000000000.                            0.33 *0      
*0                2800.              0.              0.              0. *1      
*1           200000000.              0.              0. 
PSHELL*               1               1           2.E-2               1 *0      
*0                   1.               1 0.8333333333333 
DESVAR*               1            area              0.              0. *0      
*0                   0.              0. 
DESVAR*               2          aspect              0.              0. *0      
*0                   0.              0. 
DESVAR*               3        dihedral              0.              0. *0      
*0                   0.              0. 
DESVAR*               4         lesweep              0.              0. *0      
*0                   0.              0. 
DESVAR*               5           taper              0.              0. *0      
*0                   0.              0. 
DESVAR*               6           twist              0.              0. *0      
*0                   0.              0. 

INCLUDE 'nastran_CAPS.bdf'

ENDDATA
