ID CAPS generated Problem FOR TACS
SOL 1
CEND

LINE=10000
DISP (PRINT,PUNCH) = ALL
STRE (PRINT,PUNCH) = ALL
STRA (PRINT,PUNCH) = ALL
SUBCASE 1
	LABEL = Default
	ANALYSIS = STATICS
	SPC = 2
	LOAD = 2

BEGIN BULK
$---1---|---2---|---3---|---4---|---5---|---6---|---7---|---8---|---9---|---10--|
PARAM, POST, -1

LOAD           2      1.      1.       1
SPCADD         2       1
PLOAD2         12000000.       1
PLOAD2         12000000.       2
PLOAD2         12000000.       3
PLOAD2         12000000.       4
PLOAD2         12000000.       5
PLOAD2         12000000.       6
PLOAD2         12000000.       7
PLOAD2         12000000.       8
PLOAD2         12000000.       9
PLOAD2         12000000.      10
PLOAD2         12000000.      11
PLOAD2         12000000.      12
PLOAD2         12000000.      13
PLOAD2         12000000.      14
PLOAD2         12000000.      15
PLOAD2         12000000.      16
PLOAD2         12000000.      17
PLOAD2         12000000.      18
PLOAD2         12000000.      19
PLOAD2         12000000.      20
$ ... 2572 like lines cut
SPC1           1  123456    1484
SPC1           1  123456    1485
SPC1           1  123456    1486
SPC1           1  123456    1487
SPC1           1  123456    1488
SPC1           1  123456    1526
SPC1           1  123456    1527
SPC1           1  123456    1528
SPC1           1  123456    1529
SPC1           1  123456    1530
SPC1           1  123456    1556
SPC1           1  123456    1557
SPC1           1  123456    1558
SPC1           1  123456    1559
SPC1           1  123456    1560
SPC1           1  123456    1592
SPC1           1  123456    1593
SPC1           1  123456    1594
SPC1           1  123456    1595
SPC1           1  123456    1596
$ ... 20 like lines cut
MAT1           1 7.2E+10            0.33   2800.      0.      0.      0.+0      
+0            0.      0.      0.
PSHELL         1       1   6.E-3       1      1.       10.833333
DESVAR         1plateLen      0.      0.      0.      0.
DESVAR         2plateWid      0.      0.      0.      0.
DESVAR         3stiffHei      0.      0.      0.      0.

INCLUDE 'nastran_CAPS.bdf'

ENDDATA
