ID CAPS generated Problem FOR TACS
SOL 1
CEND

LINE=10000
DISP (PRINT,PUNCH) = ALL
STRE (PRINT,PUNCH) = ALL
STRA (PRINT,PUNCH) = ALL
SUBCASE 1
	LABEL = Default
	ANALYSIS = STATICS
	SPC = 2
	LOAD = 2

BEGIN BULK
$---1---|---2---|---3---|---4---|---5---|---6---|---7---|---8---|---9---|---10--|
PARAM, POST, -1

LOAD           2      1.      1.       1
SPCADD         2       1
PLOAD2         12000000.       1
PLOAD2         12000000.       2
PLOAD2         12000000.       3
PLOAD2         12000000.       4
PLOAD2         12000000.       5
PLOAD2         12000000.       6
PLOAD2         12000000.       7
PLOAD2         12000000.       8
PLOAD2         12000000.       9
PLOAD2         12000000.      10
PLOAD2         12000000.      11
PLOAD2         12000000.      12
PLOAD2         12000000.      13
PLOAD2         12000000.      14
PLOAD2         12000000.      15
PLOAD2         12000000.      16
PLOAD2         12000000.      17
PLOAD2         12000000.      18
PLOAD2         12000000.      19
PLOAD2         12000000.      20
$ ... 180 like lines cut
SPC1           1  123456     123
SPC1           1  123456     124
SPC1           1  123456     125
SPC1           1  123456     126
SPC1           1  123456     127
SPC1           1  123456     128
SPC1           1  123456     129
SPC1           1  123456     130
SPC1           1  123456     131
MAT1           1 7.2E+10            0.33   2800.      0.      0.      0.+0      
+0         2.E+8      0.      0.
PSHELL         2       1   6.E-3       1      1.       10.833333
PSHELL         1       1   6.E-3       1      1.       10.833333
DESVAR         1  Length      0.      0.      0.      0.
DESVAR         2   Width      0.      0.      0.      0.

INCLUDE 'nastran_CAPS.bdf'

ENDDATA
