ID CAPS generated Problem FOR TACS
SOL 1
CEND

LINE=569720
DISP (PRINT,PUNCH) = ALL
STRE (PRINT,PUNCH) = ALL
STRA (PRINT,PUNCH) = ALL
SUBCASE 1
	LABEL = Default
	ANALYSIS = STATICS
	SPC = 2
	LOAD = 2

BEGIN BULK
$---1---|---2---|---3---|---4---|---5---|---6---|---7---|---8---|---9---|---10--|
PARAM, POST, -1

LOAD*                 2              1.              1.               1 
SPCADD*               2               1 
FORCE*                1             501               0            100. *0      
*0                   0.              1.              0. 
FORCE*                1             502               0            100. *0      
*0                   0.              1.              0. 
FORCE*                1             503               0            100. *0      
*0                   0.              1.              0. 
FORCE*                1             504               0            100. *0      
*0                   0.              1.              0. 
FORCE*                1             505               0            100. *0      
*0                   0.              1.              0. 
FORCE*                1             506               0            100. *0      
*0                   0.              1.              0. 
FORCE*                1             507               0            100. *0      
*0                   0.              1.              0. 
FORCE*                1             508               0            100. *0      
*0                   0.              1.              0. 
FORCE*                1             509               0            100. *0      
*0                   0.              1.              0. 
FORCE*                1             510               0            100. *0      
*0                   0.              1.              0. 
FORCE*                1             511               0            100. *0      
*0                   0.              1.              0. 
FORCE*                1             512               0            100. *0      
*0                   0.              1.              0. 
FORCE*                1             513               0            100. *0      
*0                   0.              1.              0. 
FORCE*                1             514               0            100. *0      
*0                   0.              1.              0. 
FORCE*                1             515               0            100. *0      
*0                   0.              1.              0. 
FORCE*                1             516               0            100. *0      
*0                   0.              1.              0. 
FORCE*                1             517               0            100. *0      
*0                   0.              1.              0. 
FORCE*                1             518               0            100. *0      
*0                   0.              1.              0. 
FORCE*                1             519               0            100. *0      
*0                   0.              1.              0. 
FORCE*                1             520               0            100. *0      
*0                   0.              1.              0. 
$ ... 25952 like lines cut
SPC1*                 1          123456           42713 
SPC1*                 1          123456           42752 
SPC1*                 1          123456           42753 
SPC1*                 1          123456           42754 
SPC1*                 1          123456           42755 
SPC1*                 1          123456           42756 
SPC1*                 1          123456           42757 
SPC1*                 1          123456           42758 
SPC1*                 1          123456           42759 
SPC1*                 1          123456           42760 
SPC1*                 1          123456           42761 
SPC1*                 1          123456           42762 
SPC1*                 1          123456           42763 
SPC1*                 1          123456           42764 
SPC1*                 1          123456           42765 
SPC1*                 1          123456           42766 
SPC1*                 1          123456           42767 
SPC1*                 1          123456           42768 
SPC1*                 1          123456           42769 
SPC1*                 1          123456           42770 
$ ... 1559 like lines cut
MAT1*                 1    72000000000.                            0.33 *0      
*0                2800.              0.              0.              0. *1      
*1           200000000.              0.              0. 
PSHELL*               2               1             0.1               1 *0      
*0                   1.               1 0.8333333333333 
PSHELL*               3               1             0.1               1 *0      
*0                   1.               1 0.8333333333333 
PSHELL*               1               1             0.1               1 *0      
*0                   1.               1 0.8333333333333 
DESVAR*               1            area              0.              0. *0      
*0                   0.              0. 
DESVAR*               2          aspect              0.              0. *0      
*0                   0.              0. 
DESVAR*               3        dihedral              0.              0. *0      
*0                   0.              0. 
DESVAR*               4         lesweep              0.              0. *0      
*0                   0.              0. 
DESVAR*               5           taper              0.              0. *0      
*0                   0.              0. 
DESVAR*               6          thick1             0.1           5.E-2 *0      
*0                 0.15           1.E-2 
DESVAR*               7          thick2             0.1           5.E-2 *0      
*0                 0.15           1.E-2 
DESVAR*               8          thick3             0.1           5.E-2 *0      
*0                 0.15           1.E-2 
DESVAR*               9           twist              0.              0. *0      
*0                   0.              0. 
DVPREL1*              0          PSHELL               3               T *0      
*0                                                   0.                 *1      
*1                    6              1. 
DVPREL1*              0          PSHELL               1               T *0      
*0                                                   0.                 *1      
*1                    7              1. 
DVPREL1*              0          PSHELL               2               T *0      
*0                                                   0.                 *1      
*1                    8              1. 

INCLUDE 'nastran_CAPS.bdf'

ENDDATA
