ID CAPS generated Problem FOR TACS
SOL 1
CEND

LINE=573960
DISP (PRINT,PUNCH) = ALL
STRE (PRINT,PUNCH) = ALL
STRA (PRINT,PUNCH) = ALL
SUBCASE 1
	LABEL = Default
	ANALYSIS = STATICS
	SPC = 2
	LOAD = 2

BEGIN BULK
$---1---|---2---|---3---|---4---|---5---|---6---|---7---|---8---|---9---|---10--|
PARAM, POST, -1

LOAD*                 2              1.              1.               1 
SPCADD*               2               1 
FORCE*                1             501               0            100. *0      
*0                   0.              1.              0. 
FORCE*                1             502               0            100. *0      
*0                   0.              1.              0. 
FORCE*                1             503               0            100. *0      
*0                   0.              1.              0. 
FORCE*                1             504               0            100. *0      
*0                   0.              1.              0. 
FORCE*                1             505               0            100. *0      
*0                   0.              1.              0. 
FORCE*                1             506               0            100. *0      
*0                   0.              1.              0. 
FORCE*                1             507               0            100. *0      
*0                   0.              1.              0. 
FORCE*                1             508               0            100. *0      
*0                   0.              1.              0. 
FORCE*                1             509               0            100. *0      
*0                   0.              1.              0. 
FORCE*                1             510               0            100. *0      
*0                   0.              1.              0. 
FORCE*                1             511               0            100. *0      
*0                   0.              1.              0. 
FORCE*                1             512               0            100. *0      
*0                   0.              1.              0. 
FORCE*                1             513               0            100. *0      
*0                   0.              1.              0. 
FORCE*                1             514               0            100. *0      
*0                   0.              1.              0. 
FORCE*                1             515               0            100. *0      
*0                   0.              1.              0. 
FORCE*                1             516               0            100. *0      
*0                   0.              1.              0. 
FORCE*                1             517               0            100. *0      
*0                   0.              1.              0. 
FORCE*                1             518               0            100. *0      
*0                   0.              1.              0. 
FORCE*                1             519               0            100. *0      
*0                   0.              1.              0. 
FORCE*                1             520               0            100. *0      
*0                   0.              1.              0. 
$ ... 27320 like lines cut
SPC1*                 1          123456           43097 
SPC1*                 1          123456           43136 
SPC1*                 1          123456           43137 
SPC1*                 1          123456           43138 
SPC1*                 1          123456           43139 
SPC1*                 1          123456           43140 
SPC1*                 1          123456           43141 
SPC1*                 1          123456           43142 
SPC1*                 1          123456           43143 
SPC1*                 1          123456           43144 
SPC1*                 1          123456           43145 
SPC1*                 1          123456           43146 
SPC1*                 1          123456           43147 
SPC1*                 1          123456           43148 
SPC1*                 1          123456           43149 
SPC1*                 1          123456           43150 
SPC1*                 1          123456           43151 
SPC1*                 1          123456           43152 
SPC1*                 1          123456           43153 
SPC1*                 1          123456           43154 
$ ... 1523 like lines cut
MAT1*                 1    72000000000.                            0.33 *0      
*0                2800.              0.              0.              0. *1      
*1           200000000.              0.              0. 
PSHELL*               2               1             0.1               1 *0      
*0                   1.               1 0.8333333333333 
PSHELL*               3               1             0.1               1 *0      
*0                   1.               1 0.8333333333333 
PSHELL*               1               1             0.1               1 *0      
*0                   1.               1 0.8333333333333 
DESVAR*               1            area              0.              0. *0      
*0                   0.              0. 
DESVAR*               2          aspect              0.              0. *0      
*0                   0.              0. 
DESVAR*               3        dihedral              0.              0. *0      
*0                   0.              0. 
DESVAR*               4         lesweep              0.              0. *0      
*0                   0.              0. 
DESVAR*               5           taper              0.              0. *0      
*0                   0.              0. 
DESVAR*               6          thick1             0.1           5.E-2 *0      
*0                 0.15           1.E-2 
DESVAR*               7          thick2             0.1           5.E-2 *0      
*0                 0.15           1.E-2 
DESVAR*               8          thick3             0.1           5.E-2 *0      
*0                 0.15           1.E-2 
DESVAR*               9           twist              0.              0. *0      
*0                   0.              0. 
DVPREL1*            100          PSHELL               3               T *0      
*0                                                   0.                 *1      
*1                    6              1. 
DVPREL1*            200          PSHELL               1               T *0      
*0                                                   0.                 *1      
*1                    7              1. 
DVPREL1*            300          PSHELL               2               T *0      
*0                                                   0.                 *1      
*1                    8              1. 

INCLUDE 'nastran_CAPS.bdf'

ENDDATA
