ID CAPS generated Problem FOR TACS
SOL 1
CEND

LINE=368310
DISP (PRINT,PUNCH) = ALL
STRE (PRINT,PUNCH) = ALL
STRA (PRINT,PUNCH) = ALL
SUBCASE 1
	LABEL = Default
	ANALYSIS = STATICS
	SPC = 2
	LOAD = 2

BEGIN BULK
$---1---|---2---|---3---|---4---|---5---|---6---|---7---|---8---|---9---|---10--|
PARAM, POST, -1

LOAD*                 2              1.              1.               1 
SPCADD*               2               1 
FORCE*                1             337               0            100. *0      
*0                   0.              1.              0. 
FORCE*                1             338               0            100. *0      
*0                   0.              1.              0. 
FORCE*                1             339               0            100. *0      
*0                   0.              1.              0. 
FORCE*                1             340               0            100. *0      
*0                   0.              1.              0. 
FORCE*                1             341               0            100. *0      
*0                   0.              1.              0. 
FORCE*                1             342               0            100. *0      
*0                   0.              1.              0. 
FORCE*                1             343               0            100. *0      
*0                   0.              1.              0. 
FORCE*                1             344               0            100. *0      
*0                   0.              1.              0. 
FORCE*                1             345               0            100. *0      
*0                   0.              1.              0. 
FORCE*                1             346               0            100. *0      
*0                   0.              1.              0. 
FORCE*                1             347               0            100. *0      
*0                   0.              1.              0. 
FORCE*                1             348               0            100. *0      
*0                   0.              1.              0. 
FORCE*                1             349               0            100. *0      
*0                   0.              1.              0. 
FORCE*                1             350               0            100. *0      
*0                   0.              1.              0. 
FORCE*                1             351               0            100. *0      
*0                   0.              1.              0. 
FORCE*                1             352               0            100. *0      
*0                   0.              1.              0. 
FORCE*                1             353               0            100. *0      
*0                   0.              1.              0. 
FORCE*                1             354               0            100. *0      
*0                   0.              1.              0. 
FORCE*                1             355               0            100. *0      
*0                   0.              1.              0. 
FORCE*                1             356               0            100. *0      
*0                   0.              1.              0. 
$ ... 17240 like lines cut
SPC1*                 1          123456           27706 
SPC1*                 1          123456           27737 
SPC1*                 1          123456           27738 
SPC1*                 1          123456           27739 
SPC1*                 1          123456           27740 
SPC1*                 1          123456           27741 
SPC1*                 1          123456           27742 
SPC1*                 1          123456           27743 
SPC1*                 1          123456           27744 
SPC1*                 1          123456           27745 
SPC1*                 1          123456           27746 
SPC1*                 1          123456           27747 
SPC1*                 1          123456           27748 
SPC1*                 1          123456           27749 
SPC1*                 1          123456           27750 
SPC1*                 1          123456           27751 
SPC1*                 1          123456           27752 
SPC1*                 1          123456           30185 
SPC1*                 1          123456           30186 
SPC1*                 1          123456           30187 
$ ... 1013 like lines cut
MAT1*                 1    72000000000.                            0.33 *0      
*0                2800.              0.              0.              0. *1      
*1           200000000.              0.              0. 
PSHELL*               2               1  9.999150916E-2               1 *0      
*0                   1.               1 0.8333333333333 
PSHELL*               3               1 9.9966461245E-2               1 *0      
*0                   1.               1 0.8333333333333 
PSHELL*               1               1 9.9972668535E-2               1 *0      
*0                   1.               1 0.8333333333333 
DESVAR*               1            area              0.              0. *0      
*0                   0.              0. 
DESVAR*               2          aspect              0.              0. *0      
*0                   0.              0. 
DESVAR*               3        dihedral              0.              0. *0      
*0                   0.              0. 
DESVAR*               4         lesweep              0.              0. *0      
*0                   0.              0. 
DESVAR*               5           taper              0.              0. *0      
*0                   0.              0. 
DESVAR*               6          thick1 9.9966461245E-2 4.9983230623E-2 *0      
*0      0.1499496918676 9.9966461245E-3 
DESVAR*               7          thick2 9.9972668535E-2 4.9986334268E-2 *0      
*0      0.1499590028029 9.9972668535E-3 
DESVAR*               8          thick3  9.999150916E-2  4.999575458E-2 *0      
*0      0.1499872637398  9.999150916E-3 
DESVAR*               9           twist              0.              0. *0      
*0                   0.              0. 
DVPREL1*            100          PSHELL               3               T *0      
*0                                                   0.                 *1      
*1                    6              1. 
DVPREL1*            200          PSHELL               1               T *0      
*0                                                   0.                 *1      
*1                    7              1. 
DVPREL1*            300          PSHELL               2               T *0      
*0                                                   0.                 *1      
*1                    8              1. 

INCLUDE 'nastran_CAPS.bdf'

ENDDATA
