ID CAPS generated Problem FOR TACS
SOL 1
CEND

LINE=10000
DISP (PRINT,PUNCH) = ALL
STRE (PRINT,PUNCH) = ALL
STRA (PRINT,PUNCH) = ALL
SUBCASE 1
	LABEL = Default
	ANALYSIS = STATICS
	SPC = 2
	LOAD = 2

BEGIN BULK
$---1---|---2---|---3---|---4---|---5---|---6---|---7---|---8---|---9---|---10--|
PARAM, POST, -1

LOAD*                 2              1.              1.               1 
SPCADD*               2               1 
FORCE*                1              53               0            100. *0      
*0                   0.              1.              0. 
FORCE*                1              54               0            100. *0      
*0                   0.              1.              0. 
FORCE*                1              55               0            100. *0      
*0                   0.              1.              0. 
FORCE*                1              56               0            100. *0      
*0                   0.              1.              0. 
FORCE*                1              57               0            100. *0      
*0                   0.              1.              0. 
FORCE*                1              58               0            100. *0      
*0                   0.              1.              0. 
FORCE*                1              59               0            100. *0      
*0                   0.              1.              0. 
FORCE*                1              60               0            100. *0      
*0                   0.              1.              0. 
FORCE*                1              61               0            100. *0      
*0                   0.              1.              0. 
FORCE*                1              62               0            100. *0      
*0                   0.              1.              0. 
FORCE*                1              63               0            100. *0      
*0                   0.              1.              0. 
FORCE*                1              64               0            100. *0      
*0                   0.              1.              0. 
FORCE*                1              65               0            100. *0      
*0                   0.              1.              0. 
FORCE*                1              66               0            100. *0      
*0                   0.              1.              0. 
FORCE*                1              67               0            100. *0      
*0                   0.              1.              0. 
FORCE*                1              68               0            100. *0      
*0                   0.              1.              0. 
FORCE*                1              69               0            100. *0      
*0                   0.              1.              0. 
FORCE*                1              70               0            100. *0      
*0                   0.              1.              0. 
FORCE*                1              71               0            100. *0      
*0                   0.              1.              0. 
FORCE*                1              72               0            100. *0      
*0                   0.              1.              0. 
$ ... 1760 like lines cut
SPC1*                 1          123456            2929 
SPC1*                 1          123456            2940 
SPC1*                 1          123456            2941 
SPC1*                 1          123456            2942 
SPC1*                 1          123456            2943 
SPC1*                 1          123456            3172 
SPC1*                 1          123456            3173 
SPC1*                 1          123456            3174 
SPC1*                 1          123456            3175 
SPC1*                 1          123456            3176 
SPC1*                 1          123456            3177 
SPC1*                 1          123456            3275 
SPC1*                 1          123456            3281 
SPC1*                 1          123456            3282 
SPC1*                 1          123456            3283 
SPC1*                 1          123456            3284 
SPC1*                 1          123456            3285 
SPC1*                 1          123456            3311 
SPC1*                 1          123456            3312 
SPC1*                 1          123456            3313 
$ ... 89 like lines cut
MAT1*                 1    72000000000.                            0.33 *0      
*0                2800.              0.              0.              0. *1      
*1           200000000.              0.              0. 
PSHELL*               2               1 9.9977853233E-2               1 *0      
*0                   1.               1 0.8333333333333 
PSHELL*               3               1 9.9975156855E-2               1 *0      
*0                   1.               1 0.8333333333333 
PSHELL*               1               1  9.998522752E-2               1 *0      
*0                   1.               1 0.8333333333333 
DESVAR*               1            area              0.              0. *0      
*0                   0.              0. 
DESVAR*               2          aspect              0.              0. *0      
*0                   0.              0. 
DESVAR*               3        dihedral              0.              0. *0      
*0                   0.              0. 
DESVAR*               4         lesweep              0.              0. *0      
*0                   0.              0. 
DESVAR*               5           taper              0.              0. *0      
*0                   0.              0. 
DESVAR*               6          thick1 9.9975156855E-2 4.9987578428E-2 *0      
*0      0.1499627352825 9.9975156855E-3 
DESVAR*               7          thick2  9.998522752E-2  4.999261376E-2 *0      
*0      0.1499778412802  9.998522752E-3 
DESVAR*               8          thick3 9.9977853233E-2 4.9988926616E-2 *0      
*0      0.1499667798488 9.9977853233E-3 
DESVAR*               9           twist              0.              0. *0      
*0                   0.              0. 
DVPREL1*            100          PSHELL               3               T *0      
*0                                                   0.                 *1      
*1                    6              1. 
DVPREL1*            200          PSHELL               1               T *0      
*0                                                   0.                 *1      
*1                    7              1. 
DVPREL1*            300          PSHELL               2               T *0      
*0                                                   0.                 *1      
*1                    8              1. 

INCLUDE 'nastran_CAPS.bdf'

ENDDATA
